3

 C                  0.00000000    0.00000000    0.10307000
 H                  0.00000000    0.99638600   -0.30921000
 H                  0.00000000   -0.99638600   -0.30921000


%Atoms
spin=3
basis=dkh-def2-svp
endAtoms

%Hamiltonian
dkh2
threads=8
finitenuc
endHamiltonian

%SCF
nodiis=100
keepspin
emd4
molden
endSCF